data_crystal
 
_cell_length_a    28.12700
_cell_length_b    28.12700
_cell_length_c    8.87900
_cell_angle_alpha 90.00000
_cell_angle_beta  90.00000
_cell_angle_gamma 90.00000
 
_symmetry_space_group_name_Hall 'P 1'
_symmetry_space_group_name_H-M  'P 1'
 
loop_
_symmetry_equiv_pos_as_xyz
 'x,y,z' 
 
loop_
_atom_site_label
_atom_site_type_symbol
_atom_site_fract_x
_atom_site_fract_y
_atom_site_fract_z
_atom_site_charge
C          C       0.46024   0.46714   0.03316   0.0000000000
C          C       0.49474   0.45770   0.91492   0.0000000000
C          C       0.48661   0.41542   0.84807   0.0000000000
C          C       0.53235   0.48998   0.89879   0.0000000000
N          N       0.51825   0.40700   0.74799   0.0000000000
C          C       0.51116   0.36720   0.65525   0.0000000000
C          C       0.55417   0.35214   0.58496   0.0000000000
C          C       0.54659   0.31596   0.48499   0.0000000000
C          C       0.50446   0.29557   0.47604   0.0000000000
C          C       0.46366   0.30428   0.53889   0.0000000000
C          C       0.46978   0.34097   0.65314   0.0000000000
H          H       0.43018   0.44735   0.04713   0.0000000000
H          H       0.45466   0.39516   0.87261   0.0000000000
H          H       0.55887   0.48003   0.82557   0.0000000000
H          H       0.58484   0.37247   0.59660   0.0000000000
H          H       0.58106   0.30311   0.44594   0.0000000000
H          H       0.43087   0.28872   0.54025   0.0000000000
H          H       0.43841   0.34960   0.69417   0.0000000000
C          C       0.96025   0.96896   0.53080   0.0000000000
C          C       0.98977   0.95670   0.42472   0.0000000000
C          C       0.98680   0.92166   0.34497   0.0000000000
C          C       0.03432   0.99010   0.40546   0.0000000000
N          N       0.01585   0.90856   0.25074   0.0000000000
C          C       0.01191   0.86758   0.15811   0.0000000000
C          C       0.05161   0.85241   0.08244   0.0000000000
C          C       0.04571   0.81899   1.00101   0.0000000000
C          C       0.00390   0.79240   0.96349   0.0000000000
C          C       0.96531   0.80998   0.04684   0.0000000000
C          C       0.96721   0.84150   0.13578   0.0000000000
H          H       0.93386   0.94805   0.55074   0.0000000000
H          H       0.95621   0.89729   0.37073   0.0000000000
H          H       0.05860   0.98155   0.32566   0.0000000000
H          H       0.08369   0.87365   0.09590   0.0000000000
H          H       0.07612   0.80510   0.94649   0.0000000000
H          H       0.92962   0.78388   0.04333   0.0000000000
H          H       0.93691   0.85526   0.19381   0.0000000000
C          C       0.03445   0.53093   0.52153   0.0000000000
C          C       0.00574   0.54225   0.42844   0.0000000000
C          C       0.01625   0.58011   0.34697   0.0000000000
C          C       0.97237   0.50843   0.39906   0.0000000000
N          N       0.98267   0.59298   0.25402   0.0000000000
C          C       0.99088   0.63194   0.15948   0.0000000000
C          C       0.94846   0.64613   0.09010   0.0000000000
C          C       0.95138   0.68109   0.98602   0.0000000000
C          C       0.99513   0.70816   0.97484   0.0000000000
C          C       0.03297   0.69394   0.04636   0.0000000000
C          C       0.03286   0.66014   0.13892   0.0000000000
H          H       0.06583   0.55183   0.55636   0.0000000000
H          H       0.04321   0.60459   0.37444   0.0000000000
H          H       0.94468   0.51729   0.31424   0.0000000000
H          H       0.91481   0.62958   0.11417   0.0000000000
H          H       0.92039   0.69499   0.94127   0.0000000000
H          H       0.06849   0.71315   0.04054   0.0000000000
H          H       0.06133   0.64538   0.18974   0.0000000000
C          C       0.53899   0.03179   0.02391   0.0000000000
C          C       0.50604   0.04212   0.92310   0.0000000000
C          C       0.51416   0.08402   0.85599   0.0000000000
C          C       0.46732   0.01216   0.89685   0.0000000000
N          N       0.48182   0.09656   0.73818   0.0000000000
C          C       0.48837   0.13181   0.65861   0.0000000000
C          C       0.44977   0.14846   0.57563   0.0000000000
C          C       0.45411   0.18061   0.48768   0.0000000000
C          C       0.49617   0.20502   0.46350   0.0000000000
C          C       0.53368   0.19593   0.54292   0.0000000000
C          C       0.53152   0.15733   0.63823   0.0000000000
H          H       0.56658   0.05630   0.05029   0.0000000000
H          H       0.54120   0.10089   0.87389   0.0000000000
H          H       0.44531   0.01833   0.81961   0.0000000000
H          H       0.41460   0.13290   0.59976   0.0000000000
H          H       0.42093   0.19267   0.43694   0.0000000000
H          H       0.57047   0.21170   0.53751   0.0000000000
H          H       0.56028   0.15153   0.69161   0.0000000000
C          C       0.28115   0.71314   0.27300   0.0000000000
C          C       0.29244   0.74303   0.17559   0.0000000000
C          C       0.33479   0.73719   0.09058   0.0000000000
C          C       0.26057   0.78406   0.14727   0.0000000000
N          N       0.34327   0.76343   0.99339   0.0000000000
C          C       0.38336   0.76131   0.91302   0.0000000000
C          C       0.39489   0.80306   0.83205   0.0000000000
C          C       0.43316   0.79768   0.73561   0.0000000000
C          C       0.45526   0.75447   0.72346   0.0000000000
C          C       0.44531   0.71554   0.78949   0.0000000000
C          C       0.40587   0.71722   0.90038   0.0000000000
H          H       0.30266   0.68545   0.29342   0.0000000000
H          H       0.35756   0.70583   0.11916   0.0000000000
H          H       0.26816   0.80763   0.07441   0.0000000000
H          H       0.38088   0.83460   0.85284   0.0000000000
H          H       0.44072   0.83056   0.69264   0.0000000000
H          H       0.46028   0.67928   0.79793   0.0000000000
H          H       0.39965   0.68801   0.94976   0.0000000000
C          C       0.78045   0.21078   0.76479   0.0000000000
C          C       0.79061   0.24629   0.67695   0.0000000000
C          C       0.83106   0.23763   0.59685   0.0000000000
C          C       0.76026   0.28380   0.65444   0.0000000000
N          N       0.84104   0.26434   0.49660   0.0000000000
C          C       0.87828   0.26196   0.39853   0.0000000000
C          C       0.89843   0.30152   0.33517   0.0000000000
C          C       0.93297   0.30282   0.24462   0.0000000000
C          C       0.95404   0.25515   0.21630   0.0000000000
C          C       0.94476   0.21306   0.30762   0.0000000000
C          C       0.90977   0.22016   0.39289   0.0000000000
H          H       0.80217   0.18025   0.79857   0.0000000000
H          H       0.85643   0.20525   0.61549   0.0000000000
H          H       0.76816   0.30668   0.57014   0.0000000000
H          H       0.87521   0.33480   0.34489   0.0000000000
H          H       0.94471   0.32869   0.19868   0.0000000000
H          H       0.96383   0.18120   0.29621   0.0000000000
H          H       0.89834   0.18471   0.45821   0.0000000000
C          C       0.21876   0.28935   0.77775   0.0000000000
C          C       0.20653   0.25745   0.67626   0.0000000000
C          C       0.16498   0.26279   0.60149   0.0000000000
C          C       0.23836   0.21819   0.64840   0.0000000000
N          N       0.15369   0.23598   0.50313   0.0000000000
C          C       0.11765   0.23679   0.41025   0.0000000000
C          C       0.10184   0.19675   0.33392   0.0000000000
C          C       0.06497   0.20052   0.25306   0.0000000000
C          C       0.04432   0.24417   0.21184   0.0000000000
C          C       0.05547   0.28472   0.29815   0.0000000000
C          C       0.09325   0.27939   0.39525   0.0000000000
H          H       0.19587   0.32235   0.80646   0.0000000000
H          H       0.14457   0.29281   0.61446   0.0000000000
H          H       0.23301   0.19374   0.56991   0.0000000000
H          H       0.11887   0.16393   0.35277   0.0000000000
H          H       0.05731   0.17060   0.19531   0.0000000000
H          H       0.03319   0.31716   0.28893   0.0000000000
H          H       0.10233   0.31280   0.44357   0.0000000000
C          C       0.72097   0.78952   0.27730   0.0000000000
C          C       0.70752   0.75696   0.17139   0.0000000000
C          C       0.66941   0.76660   0.09279   0.0000000000
C          C       0.73794   0.71773   0.14531   0.0000000000
N          N       0.65774   0.73608   0.98425   0.0000000000
C          C       0.61965   0.73743   0.90062   0.0000000000
C          C       0.60319   0.70001   0.83599   0.0000000000
C          C       0.56623   0.70255   0.75173   0.0000000000
C          C       0.54002   0.74462   0.71784   0.0000000000
C          C       0.55487   0.78611   0.78514   0.0000000000
C          C       0.58987   0.77899   0.88493   0.0000000000
H          H       0.69814   0.82047   0.28700   0.0000000000
H          H       0.64563   0.79250   0.11510   0.0000000000
H          H       0.73226   0.69375   0.06473   0.0000000000
H          H       0.62036   0.66360   0.84530   0.0000000000
H          H       0.55316   0.66781   0.69292   0.0000000000
H          H       0.53872   0.82338   0.79501   0.0000000000
H          H       0.60480   0.81435   0.94913   0.0000000000
C          C       0.53417   0.53258   0.97548   0.0000000000
C          C       0.50581   0.54028   0.07626   0.0000000000
C          C       0.51046   0.58439   0.15563   0.0000000000
C          C       0.46774   0.50933   0.10678   0.0000000000
N          N       0.48150   0.59566   0.24313   0.0000000000
C          C       0.48828   0.63374   0.33124   0.0000000000
C          C       0.44909   0.64752   0.41981   0.0000000000
C          C       0.45276   0.68276   0.51655   0.0000000000
C          C       0.49467   0.70588   0.53235   0.0000000000
C          C       0.53442   0.69270   0.45506   0.0000000000
C          C       0.53130   0.65518   0.35660   0.0000000000
H          H       0.56686   0.55076   0.95915   0.0000000000
H          H       0.54280   0.60361   0.12616   0.0000000000
H          H       0.44507   0.51797   0.18600   0.0000000000
H          H       0.41602   0.62987   0.40656   0.0000000000
H          H       0.41880   0.69551   0.56032   0.0000000000
H          H       0.56889   0.71561   0.46080   0.0000000000
H          H       0.56064   0.64830   0.30712   0.0000000000
C          C       0.04010   0.02851   0.47030   0.0000000000
C          C       0.00864   0.03711   0.58190   0.0000000000
C          C       0.01461   0.08156   0.65487   0.0000000000
C          C       0.96618   0.01154   0.59971   0.0000000000
N          N       0.98232   0.09555   0.75864   0.0000000000
C          C       0.98506   0.13271   0.83991   0.0000000000
C          C       0.94643   0.14880   0.92480   0.0000000000
C          C       0.95210   0.18348   0.02249   0.0000000000
C          C       0.99467   0.21134   0.02788   0.0000000000
C          C       0.03435   0.19289   0.95267   0.0000000000
C          C       0.02745   0.15785   0.85373   0.0000000000
H          H       0.06946   0.05439   0.45152   0.0000000000
H          H       0.03913   0.10355   0.63264   0.0000000000
H          H       0.94100   0.02036   0.67630   0.0000000000
H          H       0.91825   0.12832   0.89791   0.0000000000
H          H       0.91987   0.19420   0.05188   0.0000000000
H          H       0.06701   0.21550   0.95969   0.0000000000
H          H       0.06099   0.14852   0.80450   0.0000000000
C          C       0.96302   0.46929   0.46734   0.0000000000
C          C       0.99289   0.45988   0.57124   0.0000000000
C          C       0.98532   0.41463   0.65560   0.0000000000
C          C       0.03212   0.49282   0.59941   0.0000000000
N          N       0.01594   0.40591   0.76004   0.0000000000
C          C       0.01352   0.36661   0.83377   0.0000000000
C          C       0.05115   0.35204   0.91086   0.0000000000
C          C       0.04873   0.31886   0.01292   0.0000000000
C          C       0.00579   0.29099   0.02765   0.0000000000
C          C       0.96966   0.30385   0.95611   0.0000000000
C          C       0.96957   0.33913   0.86832   0.0000000000
H          H       0.93138   0.44804   0.44663   0.0000000000
H          H       0.95658   0.39813   0.63543   0.0000000000
H          H       0.05811   0.48453   0.66598   0.0000000000
H          H       0.08079   0.37337   0.90321   0.0000000000
H          H       0.07925   0.30573   0.04644   0.0000000000
H          H       0.93212   0.28915   0.95617   0.0000000000
H          H       0.93776   0.34967   0.80304   0.0000000000
C          C       0.46407   0.97088   0.97562   0.0000000000
C          C       0.49116   0.96030   0.07739   0.0000000000
C          C       0.48625   0.91953   0.15182   0.0000000000
C          C       0.53262   0.98848   0.08897   0.0000000000
N          N       0.51603   0.90504   0.24932   0.0000000000
C          C       0.51156   0.86527   0.34414   0.0000000000
C          C       0.54902   0.85420   0.41388   0.0000000000
C          C       0.54788   0.81132   0.50284   0.0000000000
C          C       0.50537   0.79240   0.53342   0.0000000000
C          C       0.46506   0.80585   0.45419   0.0000000000
C          C       0.46644   0.84165   0.35756   0.0000000000
H          H       0.43342   0.94824   0.94789   0.0000000000
H          H       0.45921   0.89063   0.13573   0.0000000000
H          H       0.56105   0.98044   0.17270   0.0000000000
H          H       0.58045   0.87092   0.40635   0.0000000000
H          H       0.58123   0.80698   0.55941   0.0000000000
H          H       0.43165   0.78768   0.46201   0.0000000000
H          H       0.44139   0.85265   0.30460   0.0000000000
C          C       0.71862   0.28781   0.72811   0.0000000000
C          C       0.70855   0.25508   0.83149   0.0000000000
C          C       0.66813   0.26396   0.90366   0.0000000000
C          C       0.74066   0.21877   0.84376   0.0000000000
N          N       0.65226   0.23428   0.00596   0.0000000000
C          C       0.61720   0.23876   0.09680   0.0000000000
C          C       0.60329   0.19662   0.15900   0.0000000000
C          C       0.56513   0.19846   0.25451   0.0000000000
C          C       0.54231   0.24372   0.28445   0.0000000000
C          C       0.55673   0.28522   0.19674   0.0000000000
C          C       0.59209   0.28036   0.10546   0.0000000000
H          H       0.70066   0.31788   0.70944   0.0000000000
H          H       0.64506   0.29299   0.87483   0.0000000000
H          H       0.73000   0.19024   0.93152   0.0000000000
H          H       0.61915   0.16567   0.15979   0.0000000000
H          H       0.55735   0.17008   0.29582   0.0000000000
H          H       0.53941   0.32093   0.21268   0.0000000000
H          H       0.60022   0.31615   0.04845   0.0000000000
C          C       0.21980   0.78592   0.22522   0.0000000000
C          C       0.20966   0.75638   0.32594   0.0000000000
C          C       0.16889   0.75964   0.40904   0.0000000000
C          C       0.23842   0.71855   0.35626   0.0000000000
N          N       0.15655   0.73372   0.49920   0.0000000000
C          C       0.11721   0.73789   0.59060   0.0000000000
C          C       0.10185   0.70155   0.67418   0.0000000000
C          C       0.06581   0.70254   0.75587   0.0000000000
C          C       0.04534   0.74524   0.78213   0.0000000000
C          C       0.05532   0.78389   0.70120   0.0000000000
C          C       0.09392   0.77795   0.61711   0.0000000000
H          H       0.19822   0.81878   0.21054   0.0000000000
H          H       0.14380   0.79229   0.37799   0.0000000000
H          H       0.23253   0.69181   0.42431   0.0000000000
H          H       0.12312   0.66321   0.64753   0.0000000000
H          H       0.05578   0.66958   0.80037   0.0000000000
H          H       0.03793   0.81557   0.71551   0.0000000000
H          H       0.09984   0.81386   0.54030   0.0000000000
C          C       0.77760   0.71392   0.22795   0.0000000000
C          C       0.79070   0.74464   0.32043   0.0000000000
C          C       0.83402   0.73803   0.40404   0.0000000000
C          C       0.76004   0.77756   0.35131   0.0000000000
N          N       0.84436   0.76579   0.50436   0.0000000000
C          C       0.88393   0.76112   0.59285   0.0000000000
C          C       0.89819   0.80396   0.67023   0.0000000000
C          C       0.93733   0.79961   0.75831   0.0000000000
C          C       0.95181   0.75451   0.76717   0.0000000000
C          C       0.94655   0.71811   0.69239   0.0000000000
C          C       0.90680   0.71987   0.59858   0.0000000000
H          H       0.80587   0.67925   0.20443   0.0000000000
H          H       0.85484   0.70736   0.38943   0.0000000000
H          H       0.76518   0.80651   0.43514   0.0000000000
H          H       0.87849   0.83196   0.65418   0.0000000000
H          H       0.94455   0.82985   0.81076   0.0000000000
H          H       0.96380   0.68218   0.71325   0.0000000000
H          H       0.89672   0.68793   0.56161   0.0000000000
C          C       0.28189   0.21101   0.73507   0.0000000000
C          C       0.29041   0.24309   0.82279   0.0000000000
C          C       0.32939   0.23725   0.90587   0.0000000000
C          C       0.26324   0.28284   0.84829   0.0000000000
N          N       0.34269   0.26635  -0.00800   0.0000000000
C          C       0.38311   0.25931   0.08889   0.0000000000
C          C       0.39692   0.30300   0.16139   0.0000000000
C          C       0.43536   0.29680   0.25208   0.0000000000
C          C       0.45837   0.25447   0.27062   0.0000000000
C          C       0.44521   0.21555   0.19904   0.0000000000
C          C       0.40771   0.22275   0.11120   0.0000000000
H          H       0.30295   0.18452   0.70467   0.0000000000
H          H       0.35468   0.20684   0.87836   0.0000000000
H          H       0.26661   0.30665   0.93176   0.0000000000
H          H       0.38296   0.33459   0.15072   0.0000000000
H          H       0.44399   0.32966   0.30995   0.0000000000
H          H       0.46292   0.18194   0.20502   0.0000000000
H          H       0.39979   0.18248   0.05542   0.0000000000
C          C       0.00369   0.25061   0.11872   0.0000000000
C          C       0.50096   0.75168   0.63106   0.0000000000
C          C       0.49917   0.24999   0.37316   0.0000000000
C          C       0.00041   0.75009   0.87154   0.0000000000
