data_crystal
 
_cell_length_a    22.16290
_cell_length_b    22.16290
_cell_length_c    6.84140
_cell_angle_alpha 90.00000
_cell_angle_beta  90.00000
_cell_angle_gamma 120.00000
 
_symmetry_space_group_name_Hall 'P 1'
_symmetry_space_group_name_H-M  'P 1'
 
loop_
_symmetry_equiv_pos_as_xyz
 'x,y,z' 
 
loop_
_atom_site_label
_atom_site_type_symbol
_atom_site_fract_x
_atom_site_fract_y
_atom_site_fract_z
_atom_site_charge
C          C       0.14515   0.62840   0.24525   0.0000000000
C          C       0.07208   0.59103   0.24095   0.0000000000
C          C       0.03402   0.62485   0.24995   0.0000000000
H          H       0.17642   0.68479   0.24765   0.0000000000
H          H       0.06498   0.68815   0.25934   0.0000000000
C          C       0.37648   0.52404   0.25738   0.0000000000
C          C       0.41158   0.48087   0.25904   0.0000000000
C          C       0.36572   0.40663   0.23818   0.0000000000
H          H       0.31458   0.48731   0.24710   0.0000000000
H          H       0.31680   0.38122   0.24737   0.0000000000
C          C       0.48033   0.85604   0.24356   0.0000000000
C          C       0.51684   0.92669   0.26081   0.0000000000
C          C       0.59637   0.96707   0.26102   0.0000000000
H          H       0.51482   0.82970   0.25179   0.0000000000
H          H       0.62820   0.94097   0.25103   0.0000000000
C          C       0.85225   0.37230   0.25135   0.0000000000
C          C       0.92553   0.40949   0.23746   0.0000000000
C          C       0.96318   0.37166   0.24477   0.0000000000
H          H       0.82678   0.31721   0.25388   0.0000000000
H          H       0.93526   0.31585   0.25008   0.0000000000
C          C       0.62536   0.48023   0.24200   0.0000000000
C          C       0.59003   0.51614   0.24410   0.0000000000
C          C       0.62237   0.59203   0.24731   0.0000000000
H          H       0.69130   0.51529   0.24278   0.0000000000
H          H       0.68299   0.61932   0.24768   0.0000000000
C          C       0.52109   0.14717   0.25619   0.0000000000
C          C       0.48377   0.07748   0.24762   0.0000000000
C          C       0.41132   0.03713   0.25089   0.0000000000
H          H       0.48856   0.17535   0.25775   0.0000000000
H          H       0.37669   0.06146   0.25512   0.0000000000
C          C       0.61988   0.14082   0.23377   0.0000000000
C          C       0.59046   0.07248   0.25006   0.0000000000
C          C       0.62251   0.03161   0.25074   0.0000000000
H          H       0.68604   0.17923   0.25710   0.0000000000
H          H       0.68452   0.06366   0.24539   0.0000000000
C          C       0.51458   0.37405   0.24392   0.0000000000
C          C       0.47781   0.40512   0.25934   0.0000000000
C          C       0.40600   0.37470   0.24860   0.0000000000
H          H       0.48929   0.31831   0.24537   0.0000000000
H          H       0.37643   0.31102   0.24105   0.0000000000
C          C       0.85369   0.48069   0.25054   0.0000000000
C          C       0.92566   0.52017   0.26324   0.0000000000
C          C       0.96949   0.59271   0.24859   0.0000000000
H          H       0.82373   0.50868   0.25149   0.0000000000
H          H       0.93197   0.62187   0.25366   0.0000000000
C          C       0.37216   0.85609   0.25789   0.0000000000
C          C       0.40363   0.92111   0.25237   0.0000000000
C          C       0.37715   0.96779   0.24535   0.0000000000
H          H       0.31438   0.82585   0.25351   0.0000000000
H          H       0.31200   0.93399   0.24958   0.0000000000
C          C       0.48638   0.62885   0.25366   0.0000000000
C          C       0.51763   0.59082   0.24815   0.0000000000
C          C       0.59135   0.62769   0.25030   0.0000000000
H          H       0.50758   0.68317   0.24917   0.0000000000
H          H       0.62133   0.68500   0.24346   0.0000000000
C          C       0.14271   0.52129   0.25373   0.0000000000
C          C       0.07379   0.48214   0.24652   0.0000000000
C          C       0.03623   0.40975   0.25263   0.0000000000
H          H       0.17323   0.48540   0.25485   0.0000000000
H          H       0.05977   0.37792   0.25025   0.0000000000
C          C       0.18039   0.59150   0.25424   0.0000000000
C          C       0.03661   0.51868   0.25662   0.0000000000
B          B       0.26133   0.62837   0.24283   0.0000000000
C          C       0.40678   0.59225   0.25058   0.0000000000
C          C       0.47976   0.51736   0.24181   0.0000000000
B          B       0.36853   0.63244   0.24791   0.0000000000
C          C       0.40971   0.82181   0.25319   0.0000000000
C          C       0.48091   0.96316   0.23931   0.0000000000
B          B       0.37086   0.73784   0.24681   0.0000000000
C          C       0.81794   0.40739   0.25135   0.0000000000
C          C       0.96394   0.48381   0.25179   0.0000000000
B          B       0.74017   0.36817   0.25572   0.0000000000
C          C       0.59593   0.41493   0.25678   0.0000000000
C          C       0.51980   0.48292   0.25768   0.0000000000
B          B       0.63161   0.37248   0.24910   0.0000000000
C          C       0.58525   0.18007   0.24615   0.0000000000
C          C       0.51297   0.03627   0.25094   0.0000000000
B          B       0.62703   0.26178   0.25083   0.0000000000
O          O       0.29945   0.59631   0.25389   0.0000000000
O          O       0.40479   0.70448   0.26499   0.0000000000
O          O       0.29813   0.70529   0.25145   0.0000000000
O          O       0.70203   0.40448   0.25415   0.0000000000
O          O       0.59692   0.29897   0.24017   0.0000000000
O          O       0.70726   0.30217   0.25006   0.0000000000
C          C       0.14450   0.62589   0.75457   0.0000000000
C          C       0.07526   0.59346   0.75662   0.0000000000
C          C       0.04076   0.62917   0.75122   0.0000000000
H          H       0.17355   0.68328   0.75217   0.0000000000
H          H       0.06415   0.68632   0.75795   0.0000000000
C          C       0.37365   0.52145   0.74782   0.0000000000
C          C       0.41149   0.48191   0.76243   0.0000000000
C          C       0.37590   0.40829   0.75189   0.0000000000
H          H       0.31576   0.49004   0.74301   0.0000000000
H          H       0.31469   0.37737   0.74285   0.0000000000
C          C       0.47991   0.85679   0.76079   0.0000000000
C          C       0.51942   0.92588   0.75044   0.0000000000
C          C       0.59124   0.96321   0.76154   0.0000000000
H          H       0.50893   0.82340   0.73720   0.0000000000
H          H       0.62274   0.93694   0.74714   0.0000000000
C          C       0.85275   0.36564   0.75427   0.0000000000
C          C       0.92929   0.40662   0.76164   0.0000000000
C          C       0.96159   0.37190   0.76277   0.0000000000
H          H       0.82855   0.32052   0.74529   0.0000000000
H          H       0.93706   0.31203   0.75093   0.0000000000
C          C       0.62273   0.47960   0.74506   0.0000000000
C          C       0.58754   0.51677   0.74845   0.0000000000
C          C       0.62775   0.59224   0.75286   0.0000000000
H          H       0.68487   0.51251   0.75819   0.0000000000
H          H       0.69027   0.62619   0.76303   0.0000000000
C          C       0.51801   0.14565   0.74099   0.0000000000
C          C       0.48090   0.07509   0.75114   0.0000000000
C          C       0.40862   0.03215   0.74593   0.0000000000
H          H       0.48590   0.17201   0.74600   0.0000000000
H          H       0.37892   0.06470   0.75501   0.0000000000
C          C       0.62604   0.14259   0.74111   0.0000000000
C          C       0.58983   0.06782   0.74689   0.0000000000
C          C       0.62267   0.03509   0.74981   0.0000000000
H          H       0.68208   0.17326   0.75227   0.0000000000
H          H       0.68905   0.06868   0.73954   0.0000000000
C          C       0.51867   0.37331   0.73783   0.0000000000
C          C       0.48792   0.41689   0.75048   0.0000000000
C          C       0.40753   0.37136   0.75529   0.0000000000
H          H       0.49061   0.32110   0.75118   0.0000000000
H          H       0.37599   0.31649   0.75427   0.0000000000
C          C       0.85460   0.48206   0.74471   0.0000000000
C          C       0.92634   0.51650   0.75097   0.0000000000
C          C       0.96098   0.58910   0.74009   0.0000000000
H          H       0.82481   0.51177   0.75616   0.0000000000
H          H       0.94084   0.62177   0.75460   0.0000000000
C          C       0.36980   0.85090   0.76132   0.0000000000
C          C       0.41299   0.92757   0.74994   0.0000000000
C          C       0.37450   0.97150   0.74953   0.0000000000
H          H       0.31415   0.82390   0.76134   0.0000000000
H          H       0.31314   0.93842   0.74584   0.0000000000
C          C       0.48061   0.62677   0.74569   0.0000000000
C          C       0.52091   0.59243   0.74848   0.0000000000
C          C       0.58883   0.62591   0.74048   0.0000000000
H          H       0.51399   0.68713   0.74573   0.0000000000
H          H       0.62352   0.68885   0.74759   0.0000000000
C          C       0.14836   0.52081   0.75150   0.0000000000
C          C       0.07595   0.48365   0.75252   0.0000000000
C          C       0.03759   0.40966   0.75425   0.0000000000
H          H       0.17368   0.48713   0.76145   0.0000000000
H          H       0.06264   0.37874   0.75593   0.0000000000
C          C       0.18386   0.59185   0.75006   0.0000000000
C          C       0.03581   0.51717   0.74826   0.0000000000
B          B       0.25833   0.63478   0.75700   0.0000000000
C          C       0.40463   0.58791   0.74130   0.0000000000
C          C       0.48156   0.51706   0.74420   0.0000000000
B          B       0.36649   0.62992   0.75446   0.0000000000
C          C       0.40879   0.81733   0.75077   0.0000000000
C          C       0.48424   0.96638   0.74474   0.0000000000
B          B       0.37373   0.74323   0.74895   0.0000000000
C          C       0.81616   0.41040   0.74472   0.0000000000
C          C       0.96884   0.48603   0.74116   0.0000000000
B          B       0.74187   0.37100   0.74829   0.0000000000
C          C       0.59053   0.41145   0.74991   0.0000000000
C          C       0.51822   0.48486   0.75345   0.0000000000
B          B       0.63328   0.37135   0.74860   0.0000000000
C          C       0.59135   0.18108   0.74799   0.0000000000
C          C       0.51448   0.03696   0.76136   0.0000000000
B          B       0.63196   0.26083   0.75604   0.0000000000
O          O       0.30280   0.59532   0.74360   0.0000000000
O          O       0.40073   0.70004   0.73538   0.0000000000
O          O       0.29885   0.70008   0.74339   0.0000000000
O          O       0.70543   0.40236   0.77195   0.0000000000
O          O       0.59332   0.29787   0.75738   0.0000000000
O          O       0.69880   0.29631   0.76245   0.0000000000
